
---------- Begin Simulation Statistics ----------
final_tick                                   38003000                       # Number of ticks from beginning of simulation (restored from checkpoints and never reset)
host_inst_rate                                  88882                       # Simulator instruction rate (inst/s)
host_mem_usage                                 647864                       # Number of bytes of host memory used
host_op_rate                                   102478                       # Simulator op (including micro ops) rate (op/s)
host_seconds                                     0.12                       # Real time elapsed on the host
host_tick_rate                              322384042                       # Simulator tick rate (ticks/s)
sim_freq                                 1000000000000                       # Frequency of simulated ticks
sim_insts                                       10458                       # Number of instructions simulated
sim_ops                                         12076                       # Number of ops (including micro ops) simulated
sim_seconds                                  0.000038                       # Number of seconds simulated
sim_ticks                                    38003000                       # Number of ticks simulated
system.cpu.committedInsts                       10458                       # Number of instructions committed
system.cpu.committedOps                         12076                       # Number of ops (including micro ops) committed
system.cpu.cpi                               7.267738                       # CPI: cycles per instruction
system.cpu.discardedOps                          2209                       # Number of ops (including micro ops) which were discarded before commit
system.cpu.idleCycles                           55567                       # Total number of cycles that the object has spent stopped
system.cpu.ipc                               0.137594                       # IPC: instructions per cycle
system.cpu.numCycles                            76006                       # number of cpu cycles simulated
system.cpu.numFetchSuspends                         0                       # Number of times Execute suspended instruction fetching
system.cpu.numWorkItemsCompleted                    0                       # number of work items this cpu completed
system.cpu.numWorkItemsStarted                      0                       # number of work items this cpu started
system.cpu.op_class_0::No_OpClass                   0      0.00%      0.00% # Class of committed instruction
system.cpu.op_class_0::IntAlu                    8273     68.51%     68.51% # Class of committed instruction
system.cpu.op_class_0::IntMult                     58      0.48%     68.99% # Class of committed instruction
system.cpu.op_class_0::IntDiv                       0      0.00%     68.99% # Class of committed instruction
system.cpu.op_class_0::FloatAdd                     0      0.00%     68.99% # Class of committed instruction
system.cpu.op_class_0::FloatCmp                     0      0.00%     68.99% # Class of committed instruction
system.cpu.op_class_0::FloatCvt                     0      0.00%     68.99% # Class of committed instruction
system.cpu.op_class_0::FloatMult                    0      0.00%     68.99% # Class of committed instruction
system.cpu.op_class_0::FloatMultAcc                 0      0.00%     68.99% # Class of committed instruction
system.cpu.op_class_0::FloatDiv                     0      0.00%     68.99% # Class of committed instruction
system.cpu.op_class_0::FloatMisc                    0      0.00%     68.99% # Class of committed instruction
system.cpu.op_class_0::FloatSqrt                    0      0.00%     68.99% # Class of committed instruction
system.cpu.op_class_0::SimdAdd                      0      0.00%     68.99% # Class of committed instruction
system.cpu.op_class_0::SimdAddAcc                   0      0.00%     68.99% # Class of committed instruction
system.cpu.op_class_0::SimdAlu                      0      0.00%     68.99% # Class of committed instruction
system.cpu.op_class_0::SimdCmp                      0      0.00%     68.99% # Class of committed instruction
system.cpu.op_class_0::SimdCvt                      0      0.00%     68.99% # Class of committed instruction
system.cpu.op_class_0::SimdMisc                     0      0.00%     68.99% # Class of committed instruction
system.cpu.op_class_0::SimdMult                     0      0.00%     68.99% # Class of committed instruction
system.cpu.op_class_0::SimdMultAcc                  0      0.00%     68.99% # Class of committed instruction
system.cpu.op_class_0::SimdShift                    0      0.00%     68.99% # Class of committed instruction
system.cpu.op_class_0::SimdShiftAcc                 0      0.00%     68.99% # Class of committed instruction
system.cpu.op_class_0::SimdDiv                      0      0.00%     68.99% # Class of committed instruction
system.cpu.op_class_0::SimdSqrt                     0      0.00%     68.99% # Class of committed instruction
system.cpu.op_class_0::SimdFloatAdd                 0      0.00%     68.99% # Class of committed instruction
system.cpu.op_class_0::SimdFloatAlu                 0      0.00%     68.99% # Class of committed instruction
system.cpu.op_class_0::SimdFloatCmp                 0      0.00%     68.99% # Class of committed instruction
system.cpu.op_class_0::SimdFloatCvt                 0      0.00%     68.99% # Class of committed instruction
system.cpu.op_class_0::SimdFloatDiv                 0      0.00%     68.99% # Class of committed instruction
system.cpu.op_class_0::SimdFloatMisc               21      0.17%     69.16% # Class of committed instruction
system.cpu.op_class_0::SimdFloatMult                0      0.00%     69.16% # Class of committed instruction
system.cpu.op_class_0::SimdFloatMultAcc             0      0.00%     69.16% # Class of committed instruction
system.cpu.op_class_0::SimdFloatSqrt                0      0.00%     69.16% # Class of committed instruction
system.cpu.op_class_0::SimdReduceAdd                0      0.00%     69.16% # Class of committed instruction
system.cpu.op_class_0::SimdReduceAlu                0      0.00%     69.16% # Class of committed instruction
system.cpu.op_class_0::SimdReduceCmp                0      0.00%     69.16% # Class of committed instruction
system.cpu.op_class_0::SimdFloatReduceAdd            0      0.00%     69.16% # Class of committed instruction
system.cpu.op_class_0::SimdFloatReduceCmp            0      0.00%     69.16% # Class of committed instruction
system.cpu.op_class_0::SimdAes                      0      0.00%     69.16% # Class of committed instruction
system.cpu.op_class_0::SimdAesMix                   0      0.00%     69.16% # Class of committed instruction
system.cpu.op_class_0::SimdSha1Hash                 0      0.00%     69.16% # Class of committed instruction
system.cpu.op_class_0::SimdSha1Hash2                0      0.00%     69.16% # Class of committed instruction
system.cpu.op_class_0::SimdSha256Hash               0      0.00%     69.16% # Class of committed instruction
system.cpu.op_class_0::SimdSha256Hash2              0      0.00%     69.16% # Class of committed instruction
system.cpu.op_class_0::SimdShaSigma2                0      0.00%     69.16% # Class of committed instruction
system.cpu.op_class_0::SimdShaSigma3                0      0.00%     69.16% # Class of committed instruction
system.cpu.op_class_0::SimdPredAlu                  0      0.00%     69.16% # Class of committed instruction
system.cpu.op_class_0::MemRead                   1817     15.05%     84.21% # Class of committed instruction
system.cpu.op_class_0::MemWrite                  1907     15.79%    100.00% # Class of committed instruction
system.cpu.op_class_0::FloatMemRead                 0      0.00%    100.00% # Class of committed instruction
system.cpu.op_class_0::FloatMemWrite                0      0.00%    100.00% # Class of committed instruction
system.cpu.op_class_0::IprAccess                    0      0.00%    100.00% # Class of committed instruction
system.cpu.op_class_0::InstPrefetch                 0      0.00%    100.00% # Class of committed instruction
system.cpu.op_class_0::total                    12076                       # Class of committed instruction
system.cpu.tickCycles                           20439                       # Number of cycles that the object actually ticked
system.cpu.workload.numSyscalls                    14                       # Number of system calls
system.membus.snoop_filter.hit_multi_requests           11                       # Number of requests hitting in the snoop filter with multiple (>1) holders of the requested data.
system.membus.snoop_filter.hit_multi_snoops            0                       # Number of snoops hitting in the snoop filter with multiple (>1) holders of the requested data.
system.membus.snoop_filter.hit_single_requests          137                       # Number of requests hitting in the snoop filter with a single holder of the requested data.
system.membus.snoop_filter.hit_single_snoops            0                       # Number of snoops hitting in the snoop filter with a single holder of the requested data.
system.membus.snoop_filter.tot_requests           788                       # Total number of requests made to the snoop filter.
system.membus.snoop_filter.tot_snoops               0                       # Total number of snoops made to the snoop filter.
system.clk_domain.clock                          1000                       # Clock period in ticks
system.cpu.branchPred.lookups                    3732                       # Number of BP lookups
system.cpu.branchPred.condPredicted              2453                       # Number of conditional branches predicted
system.cpu.branchPred.condIncorrect               651                       # Number of conditional branches incorrect
system.cpu.branchPred.BTBLookups                 1775                       # Number of BTB lookups
system.cpu.branchPred.BTBHits                     741                       # Number of BTB hits
system.cpu.branchPred.BTBHitPct             41.746479                       # BTB Hit Percentage
system.cpu.branchPred.RASUsed                     315                       # Number of times the RAS was used to get a target.
system.cpu.branchPred.RASIncorrect                  2                       # Number of incorrect RAS predictions.
system.cpu.branchPred.indirectLookups             183                       # Number of indirect predictor lookups.
system.cpu.branchPred.indirectHits                 30                       # Number of indirect target hits.
system.cpu.branchPred.indirectMisses              153                       # Number of indirect misses.
system.cpu.branchPred.indirectMispredicted           82                       # Number of mispredicted indirect branches.
system.cpu.dcache.demand_hits::.cpu.data         3676                       # number of demand (read+write) hits
system.cpu.dcache.demand_hits::total             3676                       # number of demand (read+write) hits
system.cpu.dcache.overall_hits::.cpu.data         3695                       # number of overall hits
system.cpu.dcache.overall_hits::total            3695                       # number of overall hits
system.cpu.dcache.demand_misses::.cpu.data          249                       # number of demand (read+write) misses
system.cpu.dcache.demand_misses::total            249                       # number of demand (read+write) misses
system.cpu.dcache.overall_misses::.cpu.data          259                       # number of overall misses
system.cpu.dcache.overall_misses::total           259                       # number of overall misses
system.cpu.dcache.demand_miss_latency::.cpu.data     14099500                       # number of demand (read+write) miss cycles
system.cpu.dcache.demand_miss_latency::total     14099500                       # number of demand (read+write) miss cycles
system.cpu.dcache.overall_miss_latency::.cpu.data     14099500                       # number of overall miss cycles
system.cpu.dcache.overall_miss_latency::total     14099500                       # number of overall miss cycles
system.cpu.dcache.demand_accesses::.cpu.data         3925                       # number of demand (read+write) accesses
system.cpu.dcache.demand_accesses::total         3925                       # number of demand (read+write) accesses
system.cpu.dcache.overall_accesses::.cpu.data         3954                       # number of overall (read+write) accesses
system.cpu.dcache.overall_accesses::total         3954                       # number of overall (read+write) accesses
system.cpu.dcache.demand_miss_rate::.cpu.data     0.063439                       # miss rate for demand accesses
system.cpu.dcache.demand_miss_rate::total     0.063439                       # miss rate for demand accesses
system.cpu.dcache.overall_miss_rate::.cpu.data     0.065503                       # miss rate for overall accesses
system.cpu.dcache.overall_miss_rate::total     0.065503                       # miss rate for overall accesses
system.cpu.dcache.demand_avg_miss_latency::.cpu.data 56624.497992                       # average overall miss latency
system.cpu.dcache.demand_avg_miss_latency::total 56624.497992                       # average overall miss latency
system.cpu.dcache.overall_avg_miss_latency::.cpu.data 54438.223938                       # average overall miss latency
system.cpu.dcache.overall_avg_miss_latency::total 54438.223938                       # average overall miss latency
system.cpu.dcache.blocked_cycles::no_mshrs            0                       # number of cycles access was blocked
system.cpu.dcache.blocked_cycles::no_targets            0                       # number of cycles access was blocked
system.cpu.dcache.blocked::no_mshrs                 0                       # number of cycles access was blocked
system.cpu.dcache.blocked::no_targets               0                       # number of cycles access was blocked
system.cpu.dcache.avg_blocked_cycles::no_mshrs          nan                       # average number of cycles each access was blocked
system.cpu.dcache.avg_blocked_cycles::no_targets          nan                       # average number of cycles each access was blocked
system.cpu.dcache.demand_mshr_hits::.cpu.data           54                       # number of demand (read+write) MSHR hits
system.cpu.dcache.demand_mshr_hits::total           54                       # number of demand (read+write) MSHR hits
system.cpu.dcache.overall_mshr_hits::.cpu.data           54                       # number of overall MSHR hits
system.cpu.dcache.overall_mshr_hits::total           54                       # number of overall MSHR hits
system.cpu.dcache.demand_mshr_misses::.cpu.data          195                       # number of demand (read+write) MSHR misses
system.cpu.dcache.demand_mshr_misses::total          195                       # number of demand (read+write) MSHR misses
system.cpu.dcache.overall_mshr_misses::.cpu.data          201                       # number of overall MSHR misses
system.cpu.dcache.overall_mshr_misses::total          201                       # number of overall MSHR misses
system.cpu.dcache.demand_mshr_miss_latency::.cpu.data     11077000                       # number of demand (read+write) MSHR miss cycles
system.cpu.dcache.demand_mshr_miss_latency::total     11077000                       # number of demand (read+write) MSHR miss cycles
system.cpu.dcache.overall_mshr_miss_latency::.cpu.data     11428000                       # number of overall MSHR miss cycles
system.cpu.dcache.overall_mshr_miss_latency::total     11428000                       # number of overall MSHR miss cycles
system.cpu.dcache.demand_mshr_miss_rate::.cpu.data     0.049682                       # mshr miss rate for demand accesses
system.cpu.dcache.demand_mshr_miss_rate::total     0.049682                       # mshr miss rate for demand accesses
system.cpu.dcache.overall_mshr_miss_rate::.cpu.data     0.050835                       # mshr miss rate for overall accesses
system.cpu.dcache.overall_mshr_miss_rate::total     0.050835                       # mshr miss rate for overall accesses
system.cpu.dcache.demand_avg_mshr_miss_latency::.cpu.data 56805.128205                       # average overall mshr miss latency
system.cpu.dcache.demand_avg_mshr_miss_latency::total 56805.128205                       # average overall mshr miss latency
system.cpu.dcache.overall_avg_mshr_miss_latency::.cpu.data 56855.721393                       # average overall mshr miss latency
system.cpu.dcache.overall_avg_mshr_miss_latency::total 56855.721393                       # average overall mshr miss latency
system.cpu.dcache.replacements                      1                       # number of replacements
system.cpu.dcache.ReadReq_hits::.cpu.data         1958                       # number of ReadReq hits
system.cpu.dcache.ReadReq_hits::total            1958                       # number of ReadReq hits
system.cpu.dcache.ReadReq_misses::.cpu.data          128                       # number of ReadReq misses
system.cpu.dcache.ReadReq_misses::total           128                       # number of ReadReq misses
system.cpu.dcache.ReadReq_miss_latency::.cpu.data      7516000                       # number of ReadReq miss cycles
system.cpu.dcache.ReadReq_miss_latency::total      7516000                       # number of ReadReq miss cycles
system.cpu.dcache.ReadReq_accesses::.cpu.data         2086                       # number of ReadReq accesses(hits+misses)
system.cpu.dcache.ReadReq_accesses::total         2086                       # number of ReadReq accesses(hits+misses)
system.cpu.dcache.ReadReq_miss_rate::.cpu.data     0.061361                       # miss rate for ReadReq accesses
system.cpu.dcache.ReadReq_miss_rate::total     0.061361                       # miss rate for ReadReq accesses
system.cpu.dcache.ReadReq_avg_miss_latency::.cpu.data 58718.750000                       # average ReadReq miss latency
system.cpu.dcache.ReadReq_avg_miss_latency::total 58718.750000                       # average ReadReq miss latency
system.cpu.dcache.ReadReq_mshr_hits::.cpu.data            6                       # number of ReadReq MSHR hits
system.cpu.dcache.ReadReq_mshr_hits::total            6                       # number of ReadReq MSHR hits
system.cpu.dcache.ReadReq_mshr_misses::.cpu.data          122                       # number of ReadReq MSHR misses
system.cpu.dcache.ReadReq_mshr_misses::total          122                       # number of ReadReq MSHR misses
system.cpu.dcache.ReadReq_mshr_miss_latency::.cpu.data      7141000                       # number of ReadReq MSHR miss cycles
system.cpu.dcache.ReadReq_mshr_miss_latency::total      7141000                       # number of ReadReq MSHR miss cycles
system.cpu.dcache.ReadReq_mshr_miss_rate::.cpu.data     0.058485                       # mshr miss rate for ReadReq accesses
system.cpu.dcache.ReadReq_mshr_miss_rate::total     0.058485                       # mshr miss rate for ReadReq accesses
system.cpu.dcache.ReadReq_avg_mshr_miss_latency::.cpu.data 58532.786885                       # average ReadReq mshr miss latency
system.cpu.dcache.ReadReq_avg_mshr_miss_latency::total 58532.786885                       # average ReadReq mshr miss latency
system.cpu.dcache.WriteReq_hits::.cpu.data         1718                       # number of WriteReq hits
system.cpu.dcache.WriteReq_hits::total           1718                       # number of WriteReq hits
system.cpu.dcache.WriteReq_misses::.cpu.data          121                       # number of WriteReq misses
system.cpu.dcache.WriteReq_misses::total          121                       # number of WriteReq misses
system.cpu.dcache.WriteReq_miss_latency::.cpu.data      6583500                       # number of WriteReq miss cycles
system.cpu.dcache.WriteReq_miss_latency::total      6583500                       # number of WriteReq miss cycles
system.cpu.dcache.WriteReq_accesses::.cpu.data         1839                       # number of WriteReq accesses(hits+misses)
system.cpu.dcache.WriteReq_accesses::total         1839                       # number of WriteReq accesses(hits+misses)
system.cpu.dcache.WriteReq_miss_rate::.cpu.data     0.065797                       # miss rate for WriteReq accesses
system.cpu.dcache.WriteReq_miss_rate::total     0.065797                       # miss rate for WriteReq accesses
system.cpu.dcache.WriteReq_avg_miss_latency::.cpu.data 54409.090909                       # average WriteReq miss latency
system.cpu.dcache.WriteReq_avg_miss_latency::total 54409.090909                       # average WriteReq miss latency
system.cpu.dcache.WriteReq_mshr_hits::.cpu.data           48                       # number of WriteReq MSHR hits
system.cpu.dcache.WriteReq_mshr_hits::total           48                       # number of WriteReq MSHR hits
system.cpu.dcache.WriteReq_mshr_misses::.cpu.data           73                       # number of WriteReq MSHR misses
system.cpu.dcache.WriteReq_mshr_misses::total           73                       # number of WriteReq MSHR misses
system.cpu.dcache.WriteReq_mshr_miss_latency::.cpu.data      3936000                       # number of WriteReq MSHR miss cycles
system.cpu.dcache.WriteReq_mshr_miss_latency::total      3936000                       # number of WriteReq MSHR miss cycles
system.cpu.dcache.WriteReq_mshr_miss_rate::.cpu.data     0.039695                       # mshr miss rate for WriteReq accesses
system.cpu.dcache.WriteReq_mshr_miss_rate::total     0.039695                       # mshr miss rate for WriteReq accesses
system.cpu.dcache.WriteReq_avg_mshr_miss_latency::.cpu.data 53917.808219                       # average WriteReq mshr miss latency
system.cpu.dcache.WriteReq_avg_mshr_miss_latency::total 53917.808219                       # average WriteReq mshr miss latency
system.cpu.dcache.SoftPFReq_hits::.cpu.data           19                       # number of SoftPFReq hits
system.cpu.dcache.SoftPFReq_hits::total            19                       # number of SoftPFReq hits
system.cpu.dcache.SoftPFReq_misses::.cpu.data           10                       # number of SoftPFReq misses
system.cpu.dcache.SoftPFReq_misses::total           10                       # number of SoftPFReq misses
system.cpu.dcache.SoftPFReq_accesses::.cpu.data           29                       # number of SoftPFReq accesses(hits+misses)
system.cpu.dcache.SoftPFReq_accesses::total           29                       # number of SoftPFReq accesses(hits+misses)
system.cpu.dcache.SoftPFReq_miss_rate::.cpu.data     0.344828                       # miss rate for SoftPFReq accesses
system.cpu.dcache.SoftPFReq_miss_rate::total     0.344828                       # miss rate for SoftPFReq accesses
system.cpu.dcache.SoftPFReq_mshr_misses::.cpu.data            6                       # number of SoftPFReq MSHR misses
system.cpu.dcache.SoftPFReq_mshr_misses::total            6                       # number of SoftPFReq MSHR misses
system.cpu.dcache.SoftPFReq_mshr_miss_latency::.cpu.data       351000                       # number of SoftPFReq MSHR miss cycles
system.cpu.dcache.SoftPFReq_mshr_miss_latency::total       351000                       # number of SoftPFReq MSHR miss cycles
system.cpu.dcache.SoftPFReq_mshr_miss_rate::.cpu.data     0.206897                       # mshr miss rate for SoftPFReq accesses
system.cpu.dcache.SoftPFReq_mshr_miss_rate::total     0.206897                       # mshr miss rate for SoftPFReq accesses
system.cpu.dcache.SoftPFReq_avg_mshr_miss_latency::.cpu.data        58500                       # average SoftPFReq mshr miss latency
system.cpu.dcache.SoftPFReq_avg_mshr_miss_latency::total        58500                       # average SoftPFReq mshr miss latency
system.cpu.dcache.LoadLockedReq_hits::.cpu.data           26                       # number of LoadLockedReq hits
system.cpu.dcache.LoadLockedReq_hits::total           26                       # number of LoadLockedReq hits
system.cpu.dcache.LoadLockedReq_accesses::.cpu.data           26                       # number of LoadLockedReq accesses(hits+misses)
system.cpu.dcache.LoadLockedReq_accesses::total           26                       # number of LoadLockedReq accesses(hits+misses)
system.cpu.dcache.StoreCondReq_hits::.cpu.data           26                       # number of StoreCondReq hits
system.cpu.dcache.StoreCondReq_hits::total           26                       # number of StoreCondReq hits
system.cpu.dcache.StoreCondReq_accesses::.cpu.data           26                       # number of StoreCondReq accesses(hits+misses)
system.cpu.dcache.StoreCondReq_accesses::total           26                       # number of StoreCondReq accesses(hits+misses)
system.cpu.dcache.power_state.pwrStateResidencyTicks::UNDEFINED     38003000                       # Cumulative time (in ticks) in various power states
system.cpu.dcache.tags.tagsinuse           115.281664                       # Cycle average of tags in use
system.cpu.dcache.tags.total_refs                3948                       # Total number of references to valid blocks.
system.cpu.dcache.tags.sampled_refs               201                       # Sample count of references to valid blocks.
system.cpu.dcache.tags.avg_refs             19.641791                       # Average number of references to valid blocks.
system.cpu.dcache.tags.warmup_cycle            139000                       # Cycle when the warmup percentage was hit.
system.cpu.dcache.tags.occ_blocks::.cpu.data   115.281664                       # Average occupied blocks per requestor
system.cpu.dcache.tags.occ_percent::.cpu.data     0.112580                       # Average percentage of cache occupancy
system.cpu.dcache.tags.occ_percent::total     0.112580                       # Average percentage of cache occupancy
system.cpu.dcache.tags.occ_task_id_blocks::1024          200                       # Occupied blocks per task id
system.cpu.dcache.tags.age_task_id_blocks_1024::0           33                       # Occupied blocks per task id
system.cpu.dcache.tags.age_task_id_blocks_1024::1          167                       # Occupied blocks per task id
system.cpu.dcache.tags.occ_task_id_percent::1024     0.195312                       # Percentage of cache occupancy per task id
system.cpu.dcache.tags.tag_accesses              8213                       # Number of tag accesses
system.cpu.dcache.tags.data_accesses             8213                       # Number of data accesses
system.cpu.dcache.tags.power_state.pwrStateResidencyTicks::UNDEFINED     38003000                       # Cumulative time (in ticks) in various power states
system.cpu.dtb.instHits                             0                       # ITB inst hits
system.cpu.dtb.instMisses                           0                       # ITB inst misses
system.cpu.dtb.readHits                             0                       # DTB read hits
system.cpu.dtb.readMisses                           0                       # DTB read misses
system.cpu.dtb.writeHits                            0                       # DTB write hits
system.cpu.dtb.writeMisses                          0                       # DTB write misses
system.cpu.dtb.inserts                              0                       # Number of times an entry is inserted into the TLB
system.cpu.dtb.flushTlb                             0                       # Number of times complete TLB was flushed
system.cpu.dtb.flushTlbMva                          0                       # Number of times TLB was flushed by MVA
system.cpu.dtb.flushTlbMvaAsid                      0                       # Number of times TLB was flushed by MVA & ASID
system.cpu.dtb.flushTlbAsid                         0                       # Number of times TLB was flushed by ASID
system.cpu.dtb.flushedEntries                       0                       # Number of entries that have been flushed from TLB
system.cpu.dtb.alignFaults                          0                       # Number of TLB faults due to alignment restrictions
system.cpu.dtb.prefetchFaults                       0                       # Number of TLB faults due to prefetch
system.cpu.dtb.domainFaults                         0                       # Number of TLB faults due to domain restrictions
system.cpu.dtb.permsFaults                          0                       # Number of TLB faults due to permissions restrictions
system.cpu.dtb.readAccesses                         0                       # DTB read accesses
system.cpu.dtb.writeAccesses                        0                       # DTB write accesses
system.cpu.dtb.instAccesses                         0                       # ITB inst accesses
system.cpu.dtb.hits                                 0                       # Total TLB (inst and data) hits
system.cpu.dtb.misses                               0                       # Total TLB (inst and data) misses
system.cpu.dtb.accesses                             0                       # Total TLB (inst and data) accesses
system.cpu.dtb.stage2_mmu.stage2_tlb.instHits            0                       # ITB inst hits
system.cpu.dtb.stage2_mmu.stage2_tlb.instMisses            0                       # ITB inst misses
system.cpu.dtb.stage2_mmu.stage2_tlb.readHits            0                       # DTB read hits
system.cpu.dtb.stage2_mmu.stage2_tlb.readMisses            0                       # DTB read misses
system.cpu.dtb.stage2_mmu.stage2_tlb.writeHits            0                       # DTB write hits
system.cpu.dtb.stage2_mmu.stage2_tlb.writeMisses            0                       # DTB write misses
system.cpu.dtb.stage2_mmu.stage2_tlb.inserts            0                       # Number of times an entry is inserted into the TLB
system.cpu.dtb.stage2_mmu.stage2_tlb.flushTlb            0                       # Number of times complete TLB was flushed
system.cpu.dtb.stage2_mmu.stage2_tlb.flushTlbMva            0                       # Number of times TLB was flushed by MVA
system.cpu.dtb.stage2_mmu.stage2_tlb.flushTlbMvaAsid            0                       # Number of times TLB was flushed by MVA & ASID
system.cpu.dtb.stage2_mmu.stage2_tlb.flushTlbAsid            0                       # Number of times TLB was flushed by ASID
system.cpu.dtb.stage2_mmu.stage2_tlb.flushedEntries            0                       # Number of entries that have been flushed from TLB
system.cpu.dtb.stage2_mmu.stage2_tlb.alignFaults            0                       # Number of TLB faults due to alignment restrictions
system.cpu.dtb.stage2_mmu.stage2_tlb.prefetchFaults            0                       # Number of TLB faults due to prefetch
system.cpu.dtb.stage2_mmu.stage2_tlb.domainFaults            0                       # Number of TLB faults due to domain restrictions
system.cpu.dtb.stage2_mmu.stage2_tlb.permsFaults            0                       # Number of TLB faults due to permissions restrictions
system.cpu.dtb.stage2_mmu.stage2_tlb.readAccesses            0                       # DTB read accesses
system.cpu.dtb.stage2_mmu.stage2_tlb.writeAccesses            0                       # DTB write accesses
system.cpu.dtb.stage2_mmu.stage2_tlb.instAccesses            0                       # ITB inst accesses
system.cpu.dtb.stage2_mmu.stage2_tlb.hits            0                       # Total TLB (inst and data) hits
system.cpu.dtb.stage2_mmu.stage2_tlb.misses            0                       # Total TLB (inst and data) misses
system.cpu.dtb.stage2_mmu.stage2_tlb.accesses            0                       # Total TLB (inst and data) accesses
system.cpu.dtb.stage2_mmu.stage2_tlb.walker.walks            0                       # Table walker walks requested
system.cpu.dtb.stage2_mmu.stage2_tlb.walker.requestOrigin_Requested::Data            0                       # Table walker requests started/completed, data/inst
system.cpu.dtb.stage2_mmu.stage2_tlb.walker.requestOrigin_Requested::Inst            0                       # Table walker requests started/completed, data/inst
system.cpu.dtb.stage2_mmu.stage2_tlb.walker.requestOrigin_Requested::total            0                       # Table walker requests started/completed, data/inst
system.cpu.dtb.stage2_mmu.stage2_tlb.walker.requestOrigin_Completed::Data            0                       # Table walker requests started/completed, data/inst
system.cpu.dtb.stage2_mmu.stage2_tlb.walker.requestOrigin_Completed::Inst            0                       # Table walker requests started/completed, data/inst
system.cpu.dtb.stage2_mmu.stage2_tlb.walker.requestOrigin_Completed::total            0                       # Table walker requests started/completed, data/inst
system.cpu.dtb.stage2_mmu.stage2_tlb.walker.requestOrigin::total            0                       # Table walker requests started/completed, data/inst
system.cpu.dtb.stage2_mmu.stage2_tlb.walker.power_state.pwrStateResidencyTicks::UNDEFINED     38003000                       # Cumulative time (in ticks) in various power states
system.cpu.dtb.walker.walks                         0                       # Table walker walks requested
system.cpu.dtb.walker.requestOrigin_Requested::Data            0                       # Table walker requests started/completed, data/inst
system.cpu.dtb.walker.requestOrigin_Requested::Inst            0                       # Table walker requests started/completed, data/inst
system.cpu.dtb.walker.requestOrigin_Requested::total            0                       # Table walker requests started/completed, data/inst
system.cpu.dtb.walker.requestOrigin_Completed::Data            0                       # Table walker requests started/completed, data/inst
system.cpu.dtb.walker.requestOrigin_Completed::Inst            0                       # Table walker requests started/completed, data/inst
system.cpu.dtb.walker.requestOrigin_Completed::total            0                       # Table walker requests started/completed, data/inst
system.cpu.dtb.walker.requestOrigin::total            0                       # Table walker requests started/completed, data/inst
system.cpu.dtb.walker.power_state.pwrStateResidencyTicks::UNDEFINED     38003000                       # Cumulative time (in ticks) in various power states
system.cpu.fetch2.intInstructions               10784                       # Number of integer instructions successfully decoded
system.cpu.fetch2.fpInstructions                    0                       # Number of floating point instructions successfully decoded
system.cpu.fetch2.vecInstructions                   0                       # Number of SIMD instructions successfully decoded
system.cpu.fetch2.loadInstructions               2657                       # Number of memory load instructions successfully decoded
system.cpu.fetch2.storeInstructions              1547                       # Number of memory store instructions successfully decoded
system.cpu.fetch2.amoInstructions                   0                       # Number of memory atomic instructions successfully decoded
system.cpu.icache.demand_hits::.cpu.inst         3845                       # number of demand (read+write) hits
system.cpu.icache.demand_hits::total             3845                       # number of demand (read+write) hits
system.cpu.icache.overall_hits::.cpu.inst         3845                       # number of overall hits
system.cpu.icache.overall_hits::total            3845                       # number of overall hits
system.cpu.icache.demand_misses::.cpu.inst          471                       # number of demand (read+write) misses
system.cpu.icache.demand_misses::total            471                       # number of demand (read+write) misses
system.cpu.icache.overall_misses::.cpu.inst          471                       # number of overall misses
system.cpu.icache.overall_misses::total           471                       # number of overall misses
system.cpu.icache.demand_miss_latency::.cpu.inst     25544000                       # number of demand (read+write) miss cycles
system.cpu.icache.demand_miss_latency::total     25544000                       # number of demand (read+write) miss cycles
system.cpu.icache.overall_miss_latency::.cpu.inst     25544000                       # number of overall miss cycles
system.cpu.icache.overall_miss_latency::total     25544000                       # number of overall miss cycles
system.cpu.icache.demand_accesses::.cpu.inst         4316                       # number of demand (read+write) accesses
system.cpu.icache.demand_accesses::total         4316                       # number of demand (read+write) accesses
system.cpu.icache.overall_accesses::.cpu.inst         4316                       # number of overall (read+write) accesses
system.cpu.icache.overall_accesses::total         4316                       # number of overall (read+write) accesses
system.cpu.icache.demand_miss_rate::.cpu.inst     0.109129                       # miss rate for demand accesses
system.cpu.icache.demand_miss_rate::total     0.109129                       # miss rate for demand accesses
system.cpu.icache.overall_miss_rate::.cpu.inst     0.109129                       # miss rate for overall accesses
system.cpu.icache.overall_miss_rate::total     0.109129                       # miss rate for overall accesses
system.cpu.icache.demand_avg_miss_latency::.cpu.inst 54233.545648                       # average overall miss latency
system.cpu.icache.demand_avg_miss_latency::total 54233.545648                       # average overall miss latency
system.cpu.icache.overall_avg_miss_latency::.cpu.inst 54233.545648                       # average overall miss latency
system.cpu.icache.overall_avg_miss_latency::total 54233.545648                       # average overall miss latency
system.cpu.icache.blocked_cycles::no_mshrs            0                       # number of cycles access was blocked
system.cpu.icache.blocked_cycles::no_targets            0                       # number of cycles access was blocked
system.cpu.icache.blocked::no_mshrs                 0                       # number of cycles access was blocked
system.cpu.icache.blocked::no_targets               0                       # number of cycles access was blocked
system.cpu.icache.avg_blocked_cycles::no_mshrs          nan                       # average number of cycles each access was blocked
system.cpu.icache.avg_blocked_cycles::no_targets          nan                       # average number of cycles each access was blocked
system.cpu.icache.writebacks::.writebacks          115                       # number of writebacks
system.cpu.icache.writebacks::total               115                       # number of writebacks
system.cpu.icache.demand_mshr_misses::.cpu.inst          471                       # number of demand (read+write) MSHR misses
system.cpu.icache.demand_mshr_misses::total          471                       # number of demand (read+write) MSHR misses
system.cpu.icache.overall_mshr_misses::.cpu.inst          471                       # number of overall MSHR misses
system.cpu.icache.overall_mshr_misses::total          471                       # number of overall MSHR misses
system.cpu.icache.demand_mshr_miss_latency::.cpu.inst     25073000                       # number of demand (read+write) MSHR miss cycles
system.cpu.icache.demand_mshr_miss_latency::total     25073000                       # number of demand (read+write) MSHR miss cycles
system.cpu.icache.overall_mshr_miss_latency::.cpu.inst     25073000                       # number of overall MSHR miss cycles
system.cpu.icache.overall_mshr_miss_latency::total     25073000                       # number of overall MSHR miss cycles
system.cpu.icache.demand_mshr_miss_rate::.cpu.inst     0.109129                       # mshr miss rate for demand accesses
system.cpu.icache.demand_mshr_miss_rate::total     0.109129                       # mshr miss rate for demand accesses
system.cpu.icache.overall_mshr_miss_rate::.cpu.inst     0.109129                       # mshr miss rate for overall accesses
system.cpu.icache.overall_mshr_miss_rate::total     0.109129                       # mshr miss rate for overall accesses
system.cpu.icache.demand_avg_mshr_miss_latency::.cpu.inst 53233.545648                       # average overall mshr miss latency
system.cpu.icache.demand_avg_mshr_miss_latency::total 53233.545648                       # average overall mshr miss latency
system.cpu.icache.overall_avg_mshr_miss_latency::.cpu.inst 53233.545648                       # average overall mshr miss latency
system.cpu.icache.overall_avg_mshr_miss_latency::total 53233.545648                       # average overall mshr miss latency
system.cpu.icache.replacements                    115                       # number of replacements
system.cpu.icache.ReadReq_hits::.cpu.inst         3845                       # number of ReadReq hits
system.cpu.icache.ReadReq_hits::total            3845                       # number of ReadReq hits
system.cpu.icache.ReadReq_misses::.cpu.inst          471                       # number of ReadReq misses
system.cpu.icache.ReadReq_misses::total           471                       # number of ReadReq misses
system.cpu.icache.ReadReq_miss_latency::.cpu.inst     25544000                       # number of ReadReq miss cycles
system.cpu.icache.ReadReq_miss_latency::total     25544000                       # number of ReadReq miss cycles
system.cpu.icache.ReadReq_accesses::.cpu.inst         4316                       # number of ReadReq accesses(hits+misses)
system.cpu.icache.ReadReq_accesses::total         4316                       # number of ReadReq accesses(hits+misses)
system.cpu.icache.ReadReq_miss_rate::.cpu.inst     0.109129                       # miss rate for ReadReq accesses
system.cpu.icache.ReadReq_miss_rate::total     0.109129                       # miss rate for ReadReq accesses
system.cpu.icache.ReadReq_avg_miss_latency::.cpu.inst 54233.545648                       # average ReadReq miss latency
system.cpu.icache.ReadReq_avg_miss_latency::total 54233.545648                       # average ReadReq miss latency
system.cpu.icache.ReadReq_mshr_misses::.cpu.inst          471                       # number of ReadReq MSHR misses
system.cpu.icache.ReadReq_mshr_misses::total          471                       # number of ReadReq MSHR misses
system.cpu.icache.ReadReq_mshr_miss_latency::.cpu.inst     25073000                       # number of ReadReq MSHR miss cycles
system.cpu.icache.ReadReq_mshr_miss_latency::total     25073000                       # number of ReadReq MSHR miss cycles
system.cpu.icache.ReadReq_mshr_miss_rate::.cpu.inst     0.109129                       # mshr miss rate for ReadReq accesses
system.cpu.icache.ReadReq_mshr_miss_rate::total     0.109129                       # mshr miss rate for ReadReq accesses
system.cpu.icache.ReadReq_avg_mshr_miss_latency::.cpu.inst 53233.545648                       # average ReadReq mshr miss latency
system.cpu.icache.ReadReq_avg_mshr_miss_latency::total 53233.545648                       # average ReadReq mshr miss latency
system.cpu.icache.power_state.pwrStateResidencyTicks::UNDEFINED     38003000                       # Cumulative time (in ticks) in various power states
system.cpu.icache.tags.tagsinuse           204.065525                       # Cycle average of tags in use
system.cpu.icache.tags.total_refs                4316                       # Total number of references to valid blocks.
system.cpu.icache.tags.sampled_refs               471                       # Sample count of references to valid blocks.
system.cpu.icache.tags.avg_refs              9.163482                       # Average number of references to valid blocks.
system.cpu.icache.tags.warmup_cycle             74000                       # Cycle when the warmup percentage was hit.
system.cpu.icache.tags.occ_blocks::.cpu.inst   204.065525                       # Average occupied blocks per requestor
system.cpu.icache.tags.occ_percent::.cpu.inst     0.398565                       # Average percentage of cache occupancy
system.cpu.icache.tags.occ_percent::total     0.398565                       # Average percentage of cache occupancy
system.cpu.icache.tags.occ_task_id_blocks::1024          356                       # Occupied blocks per task id
system.cpu.icache.tags.age_task_id_blocks_1024::0          130                       # Occupied blocks per task id
system.cpu.icache.tags.age_task_id_blocks_1024::1          226                       # Occupied blocks per task id
system.cpu.icache.tags.occ_task_id_percent::1024     0.695312                       # Percentage of cache occupancy per task id
system.cpu.icache.tags.tag_accesses              9103                       # Number of tag accesses
system.cpu.icache.tags.data_accesses             9103                       # Number of data accesses
system.cpu.icache.tags.power_state.pwrStateResidencyTicks::UNDEFINED     38003000                       # Cumulative time (in ticks) in various power states
system.cpu.itb.instHits                             0                       # ITB inst hits
system.cpu.itb.instMisses                           0                       # ITB inst misses
system.cpu.itb.readHits                             0                       # DTB read hits
system.cpu.itb.readMisses                           0                       # DTB read misses
system.cpu.itb.writeHits                            0                       # DTB write hits
system.cpu.itb.writeMisses                          0                       # DTB write misses
system.cpu.itb.inserts                              0                       # Number of times an entry is inserted into the TLB
system.cpu.itb.flushTlb                             0                       # Number of times complete TLB was flushed
system.cpu.itb.flushTlbMva                          0                       # Number of times TLB was flushed by MVA
system.cpu.itb.flushTlbMvaAsid                      0                       # Number of times TLB was flushed by MVA & ASID
system.cpu.itb.flushTlbAsid                         0                       # Number of times TLB was flushed by ASID
system.cpu.itb.flushedEntries                       0                       # Number of entries that have been flushed from TLB
system.cpu.itb.alignFaults                          0                       # Number of TLB faults due to alignment restrictions
system.cpu.itb.prefetchFaults                       0                       # Number of TLB faults due to prefetch
system.cpu.itb.domainFaults                         0                       # Number of TLB faults due to domain restrictions
system.cpu.itb.permsFaults                          0                       # Number of TLB faults due to permissions restrictions
system.cpu.itb.readAccesses                         0                       # DTB read accesses
system.cpu.itb.writeAccesses                        0                       # DTB write accesses
system.cpu.itb.instAccesses                         0                       # ITB inst accesses
system.cpu.itb.hits                                 0                       # Total TLB (inst and data) hits
system.cpu.itb.misses                               0                       # Total TLB (inst and data) misses
system.cpu.itb.accesses                             0                       # Total TLB (inst and data) accesses
system.cpu.itb.stage2_mmu.stage2_tlb.instHits            0                       # ITB inst hits
system.cpu.itb.stage2_mmu.stage2_tlb.instMisses            0                       # ITB inst misses
system.cpu.itb.stage2_mmu.stage2_tlb.readHits            0                       # DTB read hits
system.cpu.itb.stage2_mmu.stage2_tlb.readMisses            0                       # DTB read misses
system.cpu.itb.stage2_mmu.stage2_tlb.writeHits            0                       # DTB write hits
system.cpu.itb.stage2_mmu.stage2_tlb.writeMisses            0                       # DTB write misses
system.cpu.itb.stage2_mmu.stage2_tlb.inserts            0                       # Number of times an entry is inserted into the TLB
system.cpu.itb.stage2_mmu.stage2_tlb.flushTlb            0                       # Number of times complete TLB was flushed
system.cpu.itb.stage2_mmu.stage2_tlb.flushTlbMva            0                       # Number of times TLB was flushed by MVA
system.cpu.itb.stage2_mmu.stage2_tlb.flushTlbMvaAsid            0                       # Number of times TLB was flushed by MVA & ASID
system.cpu.itb.stage2_mmu.stage2_tlb.flushTlbAsid            0                       # Number of times TLB was flushed by ASID
system.cpu.itb.stage2_mmu.stage2_tlb.flushedEntries            0                       # Number of entries that have been flushed from TLB
system.cpu.itb.stage2_mmu.stage2_tlb.alignFaults            0                       # Number of TLB faults due to alignment restrictions
system.cpu.itb.stage2_mmu.stage2_tlb.prefetchFaults            0                       # Number of TLB faults due to prefetch
system.cpu.itb.stage2_mmu.stage2_tlb.domainFaults            0                       # Number of TLB faults due to domain restrictions
system.cpu.itb.stage2_mmu.stage2_tlb.permsFaults            0                       # Number of TLB faults due to permissions restrictions
system.cpu.itb.stage2_mmu.stage2_tlb.readAccesses            0                       # DTB read accesses
system.cpu.itb.stage2_mmu.stage2_tlb.writeAccesses            0                       # DTB write accesses
system.cpu.itb.stage2_mmu.stage2_tlb.instAccesses            0                       # ITB inst accesses
system.cpu.itb.stage2_mmu.stage2_tlb.hits            0                       # Total TLB (inst and data) hits
system.cpu.itb.stage2_mmu.stage2_tlb.misses            0                       # Total TLB (inst and data) misses
system.cpu.itb.stage2_mmu.stage2_tlb.accesses            0                       # Total TLB (inst and data) accesses
system.cpu.itb.stage2_mmu.stage2_tlb.walker.walks            0                       # Table walker walks requested
system.cpu.itb.stage2_mmu.stage2_tlb.walker.requestOrigin_Requested::Data            0                       # Table walker requests started/completed, data/inst
system.cpu.itb.stage2_mmu.stage2_tlb.walker.requestOrigin_Requested::Inst            0                       # Table walker requests started/completed, data/inst
system.cpu.itb.stage2_mmu.stage2_tlb.walker.requestOrigin_Requested::total            0                       # Table walker requests started/completed, data/inst
system.cpu.itb.stage2_mmu.stage2_tlb.walker.requestOrigin_Completed::Data            0                       # Table walker requests started/completed, data/inst
system.cpu.itb.stage2_mmu.stage2_tlb.walker.requestOrigin_Completed::Inst            0                       # Table walker requests started/completed, data/inst
system.cpu.itb.stage2_mmu.stage2_tlb.walker.requestOrigin_Completed::total            0                       # Table walker requests started/completed, data/inst
system.cpu.itb.stage2_mmu.stage2_tlb.walker.requestOrigin::total            0                       # Table walker requests started/completed, data/inst
system.cpu.itb.stage2_mmu.stage2_tlb.walker.power_state.pwrStateResidencyTicks::UNDEFINED     38003000                       # Cumulative time (in ticks) in various power states
system.cpu.itb.walker.walks                         0                       # Table walker walks requested
system.cpu.itb.walker.requestOrigin_Requested::Data            0                       # Table walker requests started/completed, data/inst
system.cpu.itb.walker.requestOrigin_Requested::Inst            0                       # Table walker requests started/completed, data/inst
system.cpu.itb.walker.requestOrigin_Requested::total            0                       # Table walker requests started/completed, data/inst
system.cpu.itb.walker.requestOrigin_Completed::Data            0                       # Table walker requests started/completed, data/inst
system.cpu.itb.walker.requestOrigin_Completed::Inst            0                       # Table walker requests started/completed, data/inst
system.cpu.itb.walker.requestOrigin_Completed::total            0                       # Table walker requests started/completed, data/inst
system.cpu.itb.walker.requestOrigin::total            0                       # Table walker requests started/completed, data/inst
system.cpu.itb.walker.power_state.pwrStateResidencyTicks::UNDEFINED     38003000                       # Cumulative time (in ticks) in various power states
system.cpu.power_state.pwrStateResidencyTicks::ON     38003000                       # Cumulative time (in ticks) in various power states
system.cpu.thread_0.numInsts                    10458                       # Number of Instructions committed
system.cpu.thread_0.numOps                      12076                       # Number of Ops committed
system.cpu.thread_0.numMemRefs                      0                       # Number of Memory References
system.cpu_clk_domain.clock                       500                       # Clock period in ticks
system.cpu_voltage_domain.voltage                   1                       # Voltage in Volts
system.mem_ctrls.avgPriority_.writebacks::samples       104.00                       # Average QoS priority value for accepted requests
system.mem_ctrls.avgPriority_.cpu.inst::samples       458.00                       # Average QoS priority value for accepted requests
system.mem_ctrls.avgPriority_.cpu.data::samples       200.00                       # Average QoS priority value for accepted requests
system.mem_ctrls.priorityMinLatency      0.000000016842                       # per QoS priority minimum request to response latency (s)
system.mem_ctrls.priorityMaxLatency      0.000027505932                       # per QoS priority maximum request to response latency (s)
system.mem_ctrls.numReadWriteTurnArounds            5                       # Number of turnarounds from READ to WRITE
system.mem_ctrls.numWriteReadTurnArounds            5                       # Number of turnarounds from WRITE to READ
system.mem_ctrls.numStayReadState                1417                       # Number of times bus staying in READ state
system.mem_ctrls.numStayWriteState                 77                       # Number of times bus staying in WRITE state
system.mem_ctrls.readReqs                         672                       # Number of read requests accepted
system.mem_ctrls.writeReqs                        104                       # Number of write requests accepted
system.mem_ctrls.readBursts                       672                       # Number of controller read bursts, including those serviced by the write queue
system.mem_ctrls.writeBursts                      104                       # Number of controller write bursts, including those merged in the write queue
system.mem_ctrls.servicedByWrQ                     14                       # Number of controller read bursts serviced by the write queue
system.mem_ctrls.mergedWrBursts                     0                       # Number of controller write bursts merged with an existing one
system.mem_ctrls.neitherReadNorWriteReqs            0                       # Number of requests that are neither read nor write
system.mem_ctrls.avgRdQLen                       1.17                       # Average read queue length when enqueuing
system.mem_ctrls.avgWrQLen                      11.34                       # Average write queue length when enqueuing
system.mem_ctrls.numRdRetry                         0                       # Number of times read queue was full causing retry
system.mem_ctrls.numWrRetry                         0                       # Number of times write queue was full causing retry
system.mem_ctrls.readPktSize::0                     0                       # Read request sizes (log2)
system.mem_ctrls.readPktSize::1                     0                       # Read request sizes (log2)
system.mem_ctrls.readPktSize::2                     0                       # Read request sizes (log2)
system.mem_ctrls.readPktSize::3                     0                       # Read request sizes (log2)
system.mem_ctrls.readPktSize::4                     0                       # Read request sizes (log2)
system.mem_ctrls.readPktSize::5                     0                       # Read request sizes (log2)
system.mem_ctrls.readPktSize::6                   672                       # Read request sizes (log2)
system.mem_ctrls.writePktSize::0                    0                       # Write request sizes (log2)
system.mem_ctrls.writePktSize::1                    0                       # Write request sizes (log2)
system.mem_ctrls.writePktSize::2                    0                       # Write request sizes (log2)
system.mem_ctrls.writePktSize::3                    0                       # Write request sizes (log2)
system.mem_ctrls.writePktSize::4                    0                       # Write request sizes (log2)
system.mem_ctrls.writePktSize::5                    0                       # Write request sizes (log2)
system.mem_ctrls.writePktSize::6                  104                       # Write request sizes (log2)
system.mem_ctrls.rdQLenPdf::0                     546                       # What read queue length does an incoming req see
system.mem_ctrls.rdQLenPdf::1                     103                       # What read queue length does an incoming req see
system.mem_ctrls.rdQLenPdf::2                       9                       # What read queue length does an incoming req see
system.mem_ctrls.rdQLenPdf::3                       0                       # What read queue length does an incoming req see
system.mem_ctrls.rdQLenPdf::4                       0                       # What read queue length does an incoming req see
system.mem_ctrls.rdQLenPdf::5                       0                       # What read queue length does an incoming req see
system.mem_ctrls.rdQLenPdf::6                       0                       # What read queue length does an incoming req see
system.mem_ctrls.rdQLenPdf::7                       0                       # What read queue length does an incoming req see
system.mem_ctrls.rdQLenPdf::8                       0                       # What read queue length does an incoming req see
system.mem_ctrls.rdQLenPdf::9                       0                       # What read queue length does an incoming req see
system.mem_ctrls.rdQLenPdf::10                      0                       # What read queue length does an incoming req see
system.mem_ctrls.rdQLenPdf::11                      0                       # What read queue length does an incoming req see
system.mem_ctrls.rdQLenPdf::12                      0                       # What read queue length does an incoming req see
system.mem_ctrls.rdQLenPdf::13                      0                       # What read queue length does an incoming req see
system.mem_ctrls.rdQLenPdf::14                      0                       # What read queue length does an incoming req see
system.mem_ctrls.rdQLenPdf::15                      0                       # What read queue length does an incoming req see
system.mem_ctrls.rdQLenPdf::16                      0                       # What read queue length does an incoming req see
system.mem_ctrls.rdQLenPdf::17                      0                       # What read queue length does an incoming req see
system.mem_ctrls.rdQLenPdf::18                      0                       # What read queue length does an incoming req see
system.mem_ctrls.rdQLenPdf::19                      0                       # What read queue length does an incoming req see
system.mem_ctrls.rdQLenPdf::20                      0                       # What read queue length does an incoming req see
system.mem_ctrls.rdQLenPdf::21                      0                       # What read queue length does an incoming req see
system.mem_ctrls.rdQLenPdf::22                      0                       # What read queue length does an incoming req see
system.mem_ctrls.rdQLenPdf::23                      0                       # What read queue length does an incoming req see
system.mem_ctrls.rdQLenPdf::24                      0                       # What read queue length does an incoming req see
system.mem_ctrls.rdQLenPdf::25                      0                       # What read queue length does an incoming req see
system.mem_ctrls.rdQLenPdf::26                      0                       # What read queue length does an incoming req see
system.mem_ctrls.rdQLenPdf::27                      0                       # What read queue length does an incoming req see
system.mem_ctrls.rdQLenPdf::28                      0                       # What read queue length does an incoming req see
system.mem_ctrls.rdQLenPdf::29                      0                       # What read queue length does an incoming req see
system.mem_ctrls.rdQLenPdf::30                      0                       # What read queue length does an incoming req see
system.mem_ctrls.rdQLenPdf::31                      0                       # What read queue length does an incoming req see
system.mem_ctrls.wrQLenPdf::0                       1                       # What write queue length does an incoming req see
system.mem_ctrls.wrQLenPdf::1                       1                       # What write queue length does an incoming req see
system.mem_ctrls.wrQLenPdf::2                       1                       # What write queue length does an incoming req see
system.mem_ctrls.wrQLenPdf::3                       1                       # What write queue length does an incoming req see
system.mem_ctrls.wrQLenPdf::4                       1                       # What write queue length does an incoming req see
system.mem_ctrls.wrQLenPdf::5                       1                       # What write queue length does an incoming req see
system.mem_ctrls.wrQLenPdf::6                       1                       # What write queue length does an incoming req see
system.mem_ctrls.wrQLenPdf::7                       1                       # What write queue length does an incoming req see
system.mem_ctrls.wrQLenPdf::8                       1                       # What write queue length does an incoming req see
system.mem_ctrls.wrQLenPdf::9                       1                       # What write queue length does an incoming req see
system.mem_ctrls.wrQLenPdf::10                      1                       # What write queue length does an incoming req see
system.mem_ctrls.wrQLenPdf::11                      1                       # What write queue length does an incoming req see
system.mem_ctrls.wrQLenPdf::12                      1                       # What write queue length does an incoming req see
system.mem_ctrls.wrQLenPdf::13                      1                       # What write queue length does an incoming req see
system.mem_ctrls.wrQLenPdf::14                      1                       # What write queue length does an incoming req see
system.mem_ctrls.wrQLenPdf::15                      2                       # What write queue length does an incoming req see
system.mem_ctrls.wrQLenPdf::16                      2                       # What write queue length does an incoming req see
system.mem_ctrls.wrQLenPdf::17                      6                       # What write queue length does an incoming req see
system.mem_ctrls.wrQLenPdf::18                      6                       # What write queue length does an incoming req see
system.mem_ctrls.wrQLenPdf::19                      6                       # What write queue length does an incoming req see
system.mem_ctrls.wrQLenPdf::20                      6                       # What write queue length does an incoming req see
system.mem_ctrls.wrQLenPdf::21                      6                       # What write queue length does an incoming req see
system.mem_ctrls.wrQLenPdf::22                      5                       # What write queue length does an incoming req see
system.mem_ctrls.wrQLenPdf::23                      5                       # What write queue length does an incoming req see
system.mem_ctrls.wrQLenPdf::24                      5                       # What write queue length does an incoming req see
system.mem_ctrls.wrQLenPdf::25                      5                       # What write queue length does an incoming req see
system.mem_ctrls.wrQLenPdf::26                      5                       # What write queue length does an incoming req see
system.mem_ctrls.wrQLenPdf::27                      5                       # What write queue length does an incoming req see
system.mem_ctrls.wrQLenPdf::28                      5                       # What write queue length does an incoming req see
system.mem_ctrls.wrQLenPdf::29                      5                       # What write queue length does an incoming req see
system.mem_ctrls.wrQLenPdf::30                      5                       # What write queue length does an incoming req see
system.mem_ctrls.wrQLenPdf::31                      5                       # What write queue length does an incoming req see
system.mem_ctrls.wrQLenPdf::32                      5                       # What write queue length does an incoming req see
system.mem_ctrls.wrQLenPdf::33                      0                       # What write queue length does an incoming req see
system.mem_ctrls.wrQLenPdf::34                      0                       # What write queue length does an incoming req see
system.mem_ctrls.wrQLenPdf::35                      0                       # What write queue length does an incoming req see
system.mem_ctrls.wrQLenPdf::36                      0                       # What write queue length does an incoming req see
system.mem_ctrls.wrQLenPdf::37                      0                       # What write queue length does an incoming req see
system.mem_ctrls.wrQLenPdf::38                      0                       # What write queue length does an incoming req see
system.mem_ctrls.wrQLenPdf::39                      0                       # What write queue length does an incoming req see
system.mem_ctrls.wrQLenPdf::40                      0                       # What write queue length does an incoming req see
system.mem_ctrls.wrQLenPdf::41                      0                       # What write queue length does an incoming req see
system.mem_ctrls.wrQLenPdf::42                      0                       # What write queue length does an incoming req see
system.mem_ctrls.wrQLenPdf::43                      0                       # What write queue length does an incoming req see
system.mem_ctrls.wrQLenPdf::44                      0                       # What write queue length does an incoming req see
system.mem_ctrls.wrQLenPdf::45                      0                       # What write queue length does an incoming req see
system.mem_ctrls.wrQLenPdf::46                      0                       # What write queue length does an incoming req see
system.mem_ctrls.wrQLenPdf::47                      0                       # What write queue length does an incoming req see
system.mem_ctrls.wrQLenPdf::48                      0                       # What write queue length does an incoming req see
system.mem_ctrls.wrQLenPdf::49                      0                       # What write queue length does an incoming req see
system.mem_ctrls.wrQLenPdf::50                      0                       # What write queue length does an incoming req see
system.mem_ctrls.wrQLenPdf::51                      0                       # What write queue length does an incoming req see
system.mem_ctrls.wrQLenPdf::52                      0                       # What write queue length does an incoming req see
system.mem_ctrls.wrQLenPdf::53                      0                       # What write queue length does an incoming req see
system.mem_ctrls.wrQLenPdf::54                      0                       # What write queue length does an incoming req see
system.mem_ctrls.wrQLenPdf::55                      0                       # What write queue length does an incoming req see
system.mem_ctrls.wrQLenPdf::56                      0                       # What write queue length does an incoming req see
system.mem_ctrls.wrQLenPdf::57                      0                       # What write queue length does an incoming req see
system.mem_ctrls.wrQLenPdf::58                      0                       # What write queue length does an incoming req see
system.mem_ctrls.wrQLenPdf::59                      0                       # What write queue length does an incoming req see
system.mem_ctrls.wrQLenPdf::60                      0                       # What write queue length does an incoming req see
system.mem_ctrls.wrQLenPdf::61                      0                       # What write queue length does an incoming req see
system.mem_ctrls.wrQLenPdf::62                      0                       # What write queue length does an incoming req see
system.mem_ctrls.wrQLenPdf::63                      0                       # What write queue length does an incoming req see
system.mem_ctrls.rdPerTurnAround::samples            5                       # Reads before turning the bus around for writes
system.mem_ctrls.rdPerTurnAround::mean     130.200000                       # Reads before turning the bus around for writes
system.mem_ctrls.rdPerTurnAround::gmean     73.054803                       # Reads before turning the bus around for writes
system.mem_ctrls.rdPerTurnAround::stdev    179.931098                       # Reads before turning the bus around for writes
system.mem_ctrls.rdPerTurnAround::16-31             1     20.00%     20.00% # Reads before turning the bus around for writes
system.mem_ctrls.rdPerTurnAround::32-47             1     20.00%     40.00% # Reads before turning the bus around for writes
system.mem_ctrls.rdPerTurnAround::48-63             1     20.00%     60.00% # Reads before turning the bus around for writes
system.mem_ctrls.rdPerTurnAround::80-95             1     20.00%     80.00% # Reads before turning the bus around for writes
system.mem_ctrls.rdPerTurnAround::448-463            1     20.00%    100.00% # Reads before turning the bus around for writes
system.mem_ctrls.rdPerTurnAround::total             5                       # Reads before turning the bus around for writes
system.mem_ctrls.wrPerTurnAround::samples            5                       # Writes before turning the bus around for reads
system.mem_ctrls.wrPerTurnAround::mean      16.400000                       # Writes before turning the bus around for reads
system.mem_ctrls.wrPerTurnAround::gmean     16.381380                       # Writes before turning the bus around for reads
system.mem_ctrls.wrPerTurnAround::stdev      0.894427                       # Writes before turning the bus around for reads
system.mem_ctrls.wrPerTurnAround::16                4     80.00%     80.00% # Writes before turning the bus around for reads
system.mem_ctrls.wrPerTurnAround::18                1     20.00%    100.00% # Writes before turning the bus around for reads
system.mem_ctrls.wrPerTurnAround::total             5                       # Writes before turning the bus around for reads
system.mem_ctrls.bytesReadWrQ                     896                       # Total number of bytes read from write queue
system.mem_ctrls.bytesReadSys                   43008                       # Total read bytes from the system interface side
system.mem_ctrls.bytesWrittenSys                 6656                       # Total written bytes from the system interface side
system.mem_ctrls.avgRdBWSys                   1131.70                       # Average system read bandwidth in MiByte/s
system.mem_ctrls.avgWrBWSys                    175.14                       # Average system write bandwidth in MiByte/s
system.mem_ctrls.totGap                      37946500                       # Total gap between requests
system.mem_ctrls.avgGap                      48900.13                       # Average gap between requests
system.mem_ctrls.requestorReadBytes::.cpu.inst        29312                       # Per-requestor bytes read from memory
system.mem_ctrls.requestorReadBytes::.cpu.data        12800                       # Per-requestor bytes read from memory
system.mem_ctrls.requestorWriteBytes::.writebacks         5248                       # Per-requestor bytes write to memory
system.mem_ctrls.requestorReadRate::.cpu.inst 771307528.353024721146                       # Per-requestor bytes read from memory rate (Bytes/sec)
system.mem_ctrls.requestorReadRate::.cpu.data 336815514.564639627934                       # Per-requestor bytes read from memory rate (Bytes/sec)
system.mem_ctrls.requestorWriteRate::.writebacks 138094360.971502244473                       # Per-requestor bytes write to memory rate (Bytes/sec)
system.mem_ctrls.requestorReadAccesses::.cpu.inst          471                       # Per-requestor read serviced memory accesses
system.mem_ctrls.requestorReadAccesses::.cpu.data          201                       # Per-requestor read serviced memory accesses
system.mem_ctrls.requestorWriteAccesses::.writebacks          104                       # Per-requestor write serviced memory accesses
system.mem_ctrls.requestorReadTotalLat::.cpu.inst     10261950                       # Per-requestor read total memory access latency
system.mem_ctrls.requestorReadTotalLat::.cpu.data      5032938                       # Per-requestor read total memory access latency
system.mem_ctrls.requestorWriteTotalLat::.writebacks    368045072                       # Per-requestor write total memory access latency
system.mem_ctrls.requestorReadAvgLat::.cpu.inst     21787.58                       # Per-requestor read average memory access latency
system.mem_ctrls.requestorReadAvgLat::.cpu.data     25039.49                       # Per-requestor read average memory access latency
system.mem_ctrls.requestorWriteAvgLat::.writebacks   3538894.92                       # Per-requestor write average memory access latency
system.mem_ctrls.dram.bytes_read::.cpu.inst        30144                       # Number of bytes read from this memory
system.mem_ctrls.dram.bytes_read::.cpu.data        12864                       # Number of bytes read from this memory
system.mem_ctrls.dram.bytes_read::total         43008                       # Number of bytes read from this memory
system.mem_ctrls.dram.bytes_inst_read::.cpu.inst        30144                       # Number of instructions bytes read from this memory
system.mem_ctrls.dram.bytes_inst_read::total        30144                       # Number of instructions bytes read from this memory
system.mem_ctrls.dram.num_reads::.cpu.inst          471                       # Number of read requests responded to by this memory
system.mem_ctrls.dram.num_reads::.cpu.data          201                       # Number of read requests responded to by this memory
system.mem_ctrls.dram.num_reads::total            672                       # Number of read requests responded to by this memory
system.mem_ctrls.dram.bw_read::.cpu.inst    793200537                       # Total read bandwidth from this memory (bytes/s)
system.mem_ctrls.dram.bw_read::.cpu.data    338499592                       # Total read bandwidth from this memory (bytes/s)
system.mem_ctrls.dram.bw_read::total       1131700129                       # Total read bandwidth from this memory (bytes/s)
system.mem_ctrls.dram.bw_inst_read::.cpu.inst    793200537                       # Instruction read bandwidth from this memory (bytes/s)
system.mem_ctrls.dram.bw_inst_read::total    793200537                       # Instruction read bandwidth from this memory (bytes/s)
system.mem_ctrls.dram.bw_total::.cpu.inst    793200537                       # Total bandwidth to/from this memory (bytes/s)
system.mem_ctrls.dram.bw_total::.cpu.data    338499592                       # Total bandwidth to/from this memory (bytes/s)
system.mem_ctrls.dram.bw_total::total      1131700129                       # Total bandwidth to/from this memory (bytes/s)
system.mem_ctrls.dram.readBursts                  658                       # Number of DRAM read bursts
system.mem_ctrls.dram.writeBursts                  82                       # Number of DRAM write bursts
system.mem_ctrls.dram.perBankRdBursts::0           70                       # Per bank write bursts
system.mem_ctrls.dram.perBankRdBursts::1           23                       # Per bank write bursts
system.mem_ctrls.dram.perBankRdBursts::2           85                       # Per bank write bursts
system.mem_ctrls.dram.perBankRdBursts::3            5                       # Per bank write bursts
system.mem_ctrls.dram.perBankRdBursts::4            1                       # Per bank write bursts
system.mem_ctrls.dram.perBankRdBursts::5           53                       # Per bank write bursts
system.mem_ctrls.dram.perBankRdBursts::6            0                       # Per bank write bursts
system.mem_ctrls.dram.perBankRdBursts::7           36                       # Per bank write bursts
system.mem_ctrls.dram.perBankRdBursts::8           39                       # Per bank write bursts
system.mem_ctrls.dram.perBankRdBursts::9           59                       # Per bank write bursts
system.mem_ctrls.dram.perBankRdBursts::10           39                       # Per bank write bursts
system.mem_ctrls.dram.perBankRdBursts::11           32                       # Per bank write bursts
system.mem_ctrls.dram.perBankRdBursts::12           40                       # Per bank write bursts
system.mem_ctrls.dram.perBankRdBursts::13           82                       # Per bank write bursts
system.mem_ctrls.dram.perBankRdBursts::14           63                       # Per bank write bursts
system.mem_ctrls.dram.perBankRdBursts::15           31                       # Per bank write bursts
system.mem_ctrls.dram.perBankWrBursts::0           13                       # Per bank write bursts
system.mem_ctrls.dram.perBankWrBursts::1            1                       # Per bank write bursts
system.mem_ctrls.dram.perBankWrBursts::2            8                       # Per bank write bursts
system.mem_ctrls.dram.perBankWrBursts::3            2                       # Per bank write bursts
system.mem_ctrls.dram.perBankWrBursts::4            0                       # Per bank write bursts
system.mem_ctrls.dram.perBankWrBursts::5            2                       # Per bank write bursts
system.mem_ctrls.dram.perBankWrBursts::6            0                       # Per bank write bursts
system.mem_ctrls.dram.perBankWrBursts::7            0                       # Per bank write bursts
system.mem_ctrls.dram.perBankWrBursts::8            0                       # Per bank write bursts
system.mem_ctrls.dram.perBankWrBursts::9           13                       # Per bank write bursts
system.mem_ctrls.dram.perBankWrBursts::10           12                       # Per bank write bursts
system.mem_ctrls.dram.perBankWrBursts::11            8                       # Per bank write bursts
system.mem_ctrls.dram.perBankWrBursts::12            2                       # Per bank write bursts
system.mem_ctrls.dram.perBankWrBursts::13           21                       # Per bank write bursts
system.mem_ctrls.dram.perBankWrBursts::14            0                       # Per bank write bursts
system.mem_ctrls.dram.perBankWrBursts::15            0                       # Per bank write bursts
system.mem_ctrls.dram.totQLat                 4212852                       # Total ticks spent queuing
system.mem_ctrls.dram.totBusLat               2468816                       # Total ticks spent in databus transfers
system.mem_ctrls.dram.totMemAccLat           15294888                       # Total ticks spent from burst creation until serviced by the DRAM
system.mem_ctrls.dram.avgQLat                 6402.51                       # Average queueing delay per DRAM burst
system.mem_ctrls.dram.avgBusLat               3752.00                       # Average bus latency per DRAM burst
system.mem_ctrls.dram.avgMemAccLat           23244.51                       # Average memory access latency per DRAM burst
system.mem_ctrls.dram.readRowHits                 533                       # Number of row buffer hits during reads
system.mem_ctrls.dram.writeRowHits                 66                       # Number of row buffer hits during writes
system.mem_ctrls.dram.readRowHitRate            81.00                       # Row buffer hit rate for reads
system.mem_ctrls.dram.writeRowHitRate           80.49                       # Row buffer hit rate for writes
system.mem_ctrls.dram.bytesPerActivate::samples          130                       # Bytes accessed per row activation
system.mem_ctrls.dram.bytesPerActivate::mean   341.169231                       # Bytes accessed per row activation
system.mem_ctrls.dram.bytesPerActivate::gmean   215.274232                       # Bytes accessed per row activation
system.mem_ctrls.dram.bytesPerActivate::stdev   327.734226                       # Bytes accessed per row activation
system.mem_ctrls.dram.bytesPerActivate::0-127           35     26.92%     26.92% # Bytes accessed per row activation
system.mem_ctrls.dram.bytesPerActivate::128-255           33     25.38%     52.31% # Bytes accessed per row activation
system.mem_ctrls.dram.bytesPerActivate::256-383           20     15.38%     67.69% # Bytes accessed per row activation
system.mem_ctrls.dram.bytesPerActivate::384-511           12      9.23%     76.92% # Bytes accessed per row activation
system.mem_ctrls.dram.bytesPerActivate::512-639            3      2.31%     79.23% # Bytes accessed per row activation
system.mem_ctrls.dram.bytesPerActivate::640-767            3      2.31%     81.54% # Bytes accessed per row activation
system.mem_ctrls.dram.bytesPerActivate::768-895            6      4.62%     86.15% # Bytes accessed per row activation
system.mem_ctrls.dram.bytesPerActivate::896-1023            2      1.54%     87.69% # Bytes accessed per row activation
system.mem_ctrls.dram.bytesPerActivate::1024-1151           16     12.31%    100.00% # Bytes accessed per row activation
system.mem_ctrls.dram.bytesPerActivate::total          130                       # Bytes accessed per row activation
system.mem_ctrls.dram.bytesRead                 42112                       # Total number of bytes read from DRAM
system.mem_ctrls.dram.bytesWritten               5248                       # Total number of bytes written to DRAM
system.mem_ctrls.dram.avgRdBW             1108.123043                       # Average DRAM read bandwidth in MiBytes/s
system.mem_ctrls.dram.avgWrBW              138.094361                       # Average DRAM write bandwidth in MiBytes/s
system.mem_ctrls.dram.peakBW                 17057.00                       # Theoretical peak bandwidth in MiByte/s
system.mem_ctrls.dram.busUtil                    7.31                       # Data bus utilization in percentage
system.mem_ctrls.dram.busUtilRead                6.50                       # Data bus utilization in percentage for reads
system.mem_ctrls.dram.busUtilWrite               0.81                       # Data bus utilization in percentage for writes
system.mem_ctrls.dram.pageHitRate               80.95                       # Row buffer hit rate, read and write combined
system.mem_ctrls.dram.power_state.pwrStateResidencyTicks::UNDEFINED     38003000                       # Cumulative time (in ticks) in various power states
system.mem_ctrls.dram.rank0.actEnergy    589994.496000                       # Energy for activate commands per rank (pJ)
system.mem_ctrls.dram.rank0.preEnergy    270414.144000                       # Energy for precharge commands per rank (pJ)
system.mem_ctrls.dram.rank0.readEnergy   1806858.144000                       # Energy for read commands per rank (pJ)
system.mem_ctrls.dram.rank0.writeEnergy  132280.512000                       # Energy for write commands per rank (pJ)
system.mem_ctrls.dram.rank0.refreshEnergy 2578434.432000                       # Energy for refresh commands per rank (pJ)
system.mem_ctrls.dram.rank0.actBackEnergy 19537669.536000                       # Energy for active background per rank (pJ)
system.mem_ctrls.dram.rank0.preBackEnergy 443959.152000                       # Energy for precharge background per rank (pJ)
system.mem_ctrls.dram.rank0.actPowerDownEnergy            0                       # Energy for active power-down per rank (pJ)
system.mem_ctrls.dram.rank0.prePowerDownEnergy            0                       # Energy for precharge power-down per rank (pJ)
system.mem_ctrls.dram.rank0.selfRefreshEnergy            0                       # Energy for self refresh per rank (pJ)
system.mem_ctrls.dram.rank0.totalEnergy  25359610.416000                       # Total energy per rank (pJ)
system.mem_ctrls.dram.rank0.averagePower   667.305487                       # Core power per rank (mW)
system.mem_ctrls.dram.rank0.totalIdleTime            0                       # Total Idle time Per DRAM Rank
system.mem_ctrls.dram.rank0.pwrStateTime::IDLE       791910                       # Time in different power states
system.mem_ctrls.dram.rank0.pwrStateTime::REF      1040000                       # Time in different power states
system.mem_ctrls.dram.rank0.pwrStateTime::SREF            0                       # Time in different power states
system.mem_ctrls.dram.rank0.pwrStateTime::PRE_PDN            0                       # Time in different power states
system.mem_ctrls.dram.rank0.pwrStateTime::ACT     36171090                       # Time in different power states
system.mem_ctrls.dram.rank0.pwrStateTime::ACT_PDN            0                       # Time in different power states
system.mem_ctrls.dram.rank1.actEnergy    895527.360000                       # Energy for activate commands per rank (pJ)
system.mem_ctrls.dram.rank1.preEnergy    405621.216000                       # Energy for precharge commands per rank (pJ)
system.mem_ctrls.dram.rank1.readEnergy   2548133.280000                       # Energy for read commands per rank (pJ)
system.mem_ctrls.dram.rank1.writeEnergy  284911.872000                       # Energy for write commands per rank (pJ)
system.mem_ctrls.dram.rank1.refreshEnergy 2578434.432000                       # Energy for refresh commands per rank (pJ)
system.mem_ctrls.dram.rank1.actBackEnergy 19528754.784000                       # Energy for active background per rank (pJ)
system.mem_ctrls.dram.rank1.preBackEnergy 451455.648000                       # Energy for precharge background per rank (pJ)
system.mem_ctrls.dram.rank1.actPowerDownEnergy            0                       # Energy for active power-down per rank (pJ)
system.mem_ctrls.dram.rank1.prePowerDownEnergy            0                       # Energy for precharge power-down per rank (pJ)
system.mem_ctrls.dram.rank1.selfRefreshEnergy            0                       # Energy for self refresh per rank (pJ)
system.mem_ctrls.dram.rank1.totalEnergy  26692838.592000                       # Total energy per rank (pJ)
system.mem_ctrls.dram.rank1.averagePower   702.387669                       # Core power per rank (mW)
system.mem_ctrls.dram.rank1.totalIdleTime            0                       # Total Idle time Per DRAM Rank
system.mem_ctrls.dram.rank1.pwrStateTime::IDLE       915040                       # Time in different power states
system.mem_ctrls.dram.rank1.pwrStateTime::REF      1040000                       # Time in different power states
system.mem_ctrls.dram.rank1.pwrStateTime::SREF            0                       # Time in different power states
system.mem_ctrls.dram.rank1.pwrStateTime::PRE_PDN            0                       # Time in different power states
system.mem_ctrls.dram.rank1.pwrStateTime::ACT     36047960                       # Time in different power states
system.mem_ctrls.dram.rank1.pwrStateTime::ACT_PDN            0                       # Time in different power states
system.mem_ctrls.power_state.pwrStateResidencyTicks::UNDEFINED     38003000                       # Cumulative time (in ticks) in various power states
system.membus.trans_dist::ReadResp                599                       # Transaction distribution
system.membus.trans_dist::WritebackClean          115                       # Transaction distribution
system.membus.trans_dist::CleanEvict                1                       # Transaction distribution
system.membus.trans_dist::ReadExReq                73                       # Transaction distribution
system.membus.trans_dist::ReadExResp               73                       # Transaction distribution
system.membus.trans_dist::ReadCleanReq            471                       # Transaction distribution
system.membus.trans_dist::ReadSharedReq           128                       # Transaction distribution
system.membus.pkt_count_system.cpu.icache.mem_side_port::system.mem_ctrls.port         1057                       # Packet count per connected requestor and responder (bytes)
system.membus.pkt_count_system.cpu.dcache.mem_side_port::system.mem_ctrls.port          403                       # Packet count per connected requestor and responder (bytes)
system.membus.pkt_count::total                   1460                       # Packet count per connected requestor and responder (bytes)
system.membus.pkt_size_system.cpu.icache.mem_side_port::system.mem_ctrls.port        37504                       # Cumulative packet size per connected requestor and responder (bytes)
system.membus.pkt_size_system.cpu.dcache.mem_side_port::system.mem_ctrls.port        12864                       # Cumulative packet size per connected requestor and responder (bytes)
system.membus.pkt_size::total                   50368                       # Cumulative packet size per connected requestor and responder (bytes)
system.membus.snoops                                0                       # Total snoops (count)
system.membus.snoopTraffic                          0                       # Total snoop traffic (bytes)
system.membus.snoop_fanout::samples               672                       # Request fanout histogram
system.membus.snoop_fanout::mean             0.047619                       # Request fanout histogram
system.membus.snoop_fanout::stdev            0.213117                       # Request fanout histogram
system.membus.snoop_fanout::underflows              0      0.00%      0.00% # Request fanout histogram
system.membus.snoop_fanout::0                     640     95.24%     95.24% # Request fanout histogram
system.membus.snoop_fanout::1                      32      4.76%    100.00% # Request fanout histogram
system.membus.snoop_fanout::2                       0      0.00%    100.00% # Request fanout histogram
system.membus.snoop_fanout::overflows               0      0.00%    100.00% # Request fanout histogram
system.membus.snoop_fanout::min_value               0                       # Request fanout histogram
system.membus.snoop_fanout::max_value               1                       # Request fanout histogram
system.membus.snoop_fanout::total                 672                       # Request fanout histogram
system.membus.power_state.pwrStateResidencyTicks::UNDEFINED     38003000                       # Cumulative time (in ticks) in various power states
system.membus.reqLayer0.occupancy             1351500                       # Layer occupancy (ticks)
system.membus.reqLayer0.utilization               3.6                       # Layer utilization (%)
system.membus.respLayer1.occupancy            2458050                       # Layer occupancy (ticks)
system.membus.respLayer1.utilization              6.5                       # Layer utilization (%)
system.membus.respLayer2.occupancy            1072628                       # Layer occupancy (ticks)
system.membus.respLayer2.utilization              2.8                       # Layer utilization (%)
system.voltage_domain.voltage                       1                       # Voltage in Volts

---------- End Simulation Statistics   ----------
